61
Properties=species:S:1:pos:R:3:occupancy:R:1:bfactor:R:1:residuenames:S:1:atomtypes:S:1:residuenumbers:I:1 pbc="F F F"
Fe      -0.01100000       0.01500000      -0.01000000       1.00000000       0.00000000 FE   FE        1
N        0.50400000       1.64900000       0.97000000       1.00000000       0.00000000 LG0  N         2
C        1.16100000       1.69700000       2.15400000       1.00000000       0.00000000 LG0  C         2
C        1.54700000       2.89900000       2.74100000       1.00000000       0.00000000 LG0  C1        2
C        1.25200000       4.10100000       2.08700000       1.00000000       0.00000000 LG0  C2        2
C        0.57300000       4.05800000       0.86800000       1.00000000       0.00000000 LG0  C3        2
C        0.20600000       2.82300000       0.32500000       1.00000000       0.00000000 LG0  C4        2
C       -0.52300000       2.64600000      -0.93300000       1.00000000       0.00000000 LG0  C5        2
C       -1.00600000       3.68800000      -1.73000000       1.00000000       0.00000000 LG0  C6        2
C       -1.69900000       3.39200000      -2.90600000       1.00000000       0.00000000 LG0  C7        2
C       -1.89700000       2.05300000      -3.25800000       1.00000000       0.00000000 LG0  C8        2
C       -1.39500000       1.05400000      -2.42600000       1.00000000       0.00000000 LG0  C9        2
N       -0.71700000       1.33400000      -1.28700000       1.00000000       0.00000000 LG0  N1        2
H       -1.51900000       0.00800000      -2.66200000       1.00000000       0.00000000 LG0  H         2
H       -2.43000000       1.78400000      -4.16000000       1.00000000       0.00000000 LG0  H1        2
H       -2.07900000       4.19000000      -3.53200000       1.00000000       0.00000000 LG0  H2        2
H       -0.85000000       4.71800000      -1.43800000       1.00000000       0.00000000 LG0  H3        2
H        0.33600000       4.97700000       0.34700000       1.00000000       0.00000000 LG0  H4        2
H        1.54400000       5.05100000       2.51700000       1.00000000       0.00000000 LG0  H5        2
H        2.06900000       2.89200000       3.69000000       1.00000000       0.00000000 LG0  H6        2
H        1.36400000       0.74700000       2.62500000       1.00000000       0.00000000 LG0  H7        2
N       -1.80400000      -0.10800000       0.81300000       1.00000000       0.00000000 LG1  N         3
C       -2.32500000       0.75700000       1.71700000       1.00000000       0.00000000 LG1  C         3
C       -3.62400000       0.63100000       2.20500000       1.00000000       0.00000000 LG1  C1        3
C       -4.42400000      -0.42000000       1.74500000       1.00000000       0.00000000 LG1  C2        3
C       -3.89600000      -1.31100000       0.80900000       1.00000000       0.00000000 LG1  C3        3
C       -2.58600000      -1.13600000       0.35300000       1.00000000       0.00000000 LG1  C4        3
C       -1.92500000      -1.99600000      -0.63200000       1.00000000       0.00000000 LG1  C5        3
C       -2.48800000      -3.15000000      -1.18600000       1.00000000       0.00000000 LG1  C6        3
C       -1.76100000      -3.88900000      -2.12100000       1.00000000       0.00000000 LG1  C7        3
C       -0.48100000      -3.45500000      -2.48200000       1.00000000       0.00000000 LG1  C8        3
C        0.03200000      -2.29900000      -1.89600000       1.00000000       0.00000000 LG1  C9        3
N       -0.67000000      -1.57600000      -0.99000000       1.00000000       0.00000000 LG1  N1        3
H        1.01500000      -1.93300000      -2.15200000       1.00000000       0.00000000 LG1  H         3
H        0.11200000      -4.00100000      -3.20500000       1.00000000       0.00000000 LG1  H1        3
H       -2.18400000      -4.78500000      -2.55800000       1.00000000       0.00000000 LG1  H2        3
H       -3.47700000      -3.47200000      -0.89000000       1.00000000       0.00000000 LG1  H3        3
H       -4.50300000      -2.12600000       0.43600000       1.00000000       0.00000000 LG1  H4        3
H       -5.43800000      -0.54200000       2.10500000       1.00000000       0.00000000 LG1  H5        3
H       -3.99800000       1.34400000       2.92900000       1.00000000       0.00000000 LG1  H6        3
H       -1.67800000       1.55200000       2.05500000       1.00000000       0.00000000 LG1  H7        3
N        0.83800000      -1.22900000       1.28000000       1.00000000       0.00000000 LG2  N         4
C        0.22500000      -1.84300000       2.32100000       1.00000000       0.00000000 LG2  C         4
C        0.88300000      -2.76300000       3.13500000       1.00000000       0.00000000 LG2  C1        4
C        2.22200000      -3.07000000       2.86800000       1.00000000       0.00000000 LG2  C2        4
C        2.85800000      -2.44300000       1.79500000       1.00000000       0.00000000 LG2  C3        4
C        2.15000000      -1.52500000       1.01400000       1.00000000       0.00000000 LG2  C4        4
C        2.70700000      -0.80500000      -0.13400000       1.00000000       0.00000000 LG2  C5        4
C        4.04200000      -0.87600000      -0.54400000       1.00000000       0.00000000 LG2  C6        4
C        4.46000000      -0.14800000      -1.65900000       1.00000000       0.00000000 LG2  C7        4
C        3.52700000       0.64100000      -2.34100000       1.00000000       0.00000000 LG2  C8        4
C        2.21100000       0.67700000      -1.88700000       1.00000000       0.00000000 LG2  C9        4
N        1.79600000      -0.03100000      -0.80700000       1.00000000       0.00000000 LG2  N1        4
H        1.46500000       1.27500000      -2.38900000       1.00000000       0.00000000 LG2  H         4
H        3.81300000       1.22000000      -3.21000000       1.00000000       0.00000000 LG2  H1        4
H        5.49200000      -0.19200000      -1.98700000       1.00000000       0.00000000 LG2  H2        4
H        4.75100000      -1.48500000       0.00100000       1.00000000       0.00000000 LG2  H3        4
H        3.89100000      -2.67300000       1.57000000       1.00000000       0.00000000 LG2  H4        4
H        2.75800000      -3.78300000       3.48100000       1.00000000       0.00000000 LG2  H5        4
H        0.35600000      -3.22800000       3.95800000       1.00000000       0.00000000 LG2  H6        4
H       -0.80800000      -1.58100000       2.49900000       1.00000000       0.00000000 LG2  H7        4
