LG2
 OpenBabel04242416403D

 20 21  0  0  0  0  0  0  0  0999 V2000
    0.8380   -1.2289    1.2799 N   0  0  0  0  0  0  0  0  0  0  0  0
    0.2246   -1.8430    2.3214 C   0  0  0  0  0  0  0  0  0  0  0  0
    0.8832   -2.7626    3.1348 C   0  0  0  0  0  0  0  0  0  0  0  0
    2.2218   -3.0696    2.8682 C   0  0  0  0  0  0  0  0  0  0  0  0
    2.8584   -2.4430    1.7955 C   0  0  0  0  0  0  0  0  0  0  0  0
    2.1498   -1.5253    1.0136 C   0  0  0  0  0  0  0  0  0  0  0  0
    2.7070   -0.8055   -0.1344 C   0  0  0  0  0  0  0  0  0  0  0  0
    4.0421   -0.8761   -0.5442 C   0  0  0  0  0  0  0  0  0  0  0  0
    4.4603   -0.1475   -1.6591 C   0  0  0  0  0  0  0  0  0  0  0  0
    3.5274    0.6405   -2.3413 C   0  0  0  0  0  0  0  0  0  0  0  0
    2.2111    0.6774   -1.8869 C   0  0  0  0  0  0  0  0  0  0  0  0
    1.7964   -0.0308   -0.8072 N   0  0  0  0  0  0  0  0  0  0  0  0
    1.4655    1.2750   -2.3887 H   0  0  0  0  0  0  0  0  0  0  0  0
    3.8128    1.2201   -3.2100 H   0  0  0  0  0  0  0  0  0  0  0  0
    5.4917   -0.1925   -1.9867 H   0  0  0  0  0  0  0  0  0  0  0  0
    4.7506   -1.4855    0.0007 H   0  0  0  0  0  0  0  0  0  0  0  0
    3.8913   -2.6728    1.5702 H   0  0  0  0  0  0  0  0  0  0  0  0
    2.7584   -3.7832    3.4813 H   0  0  0  0  0  0  0  0  0  0  0  0
    0.3558   -3.2275    3.9579 H   0  0  0  0  0  0  0  0  0  0  0  0
   -0.8076   -1.5813    2.4995 H   0  0  0  0  0  0  0  0  0  0  0  0
  1  2  1  0  0  0  0
  2 20  1  0  0  0  0
  2  3  2  0  0  0  0
  3 19  1  0  0  0  0
  4  3  1  0  0  0  0
  4 18  1  0  0  0  0
  5  4  2  0  0  0  0
  6  1  2  0  0  0  0
  6  5  1  0  0  0  0
  7  6  1  0  0  0  0
  8  7  1  0  0  0  0
  8 16  1  0  0  0  0
  9  8  2  0  0  0  0
 10 11  2  0  0  0  0
 10  9  1  0  0  0  0
 11 12  1  0  0  0  0
 12  7  2  0  0  0  0
 13 11  1  0  0  0  0
 14 10  1  0  0  0  0
 15  9  1  0  0  0  0
 17  5  1  0  0  0  0
M  END
$$$$
