114
Created with MDTraj 1.9.7, 2022-11-02
 C           33.448           31.669           32.404
 C           33.377           32.503           31.253
 C           32.230           32.536           30.468
 C           31.185           31.684           30.733
 C           29.998           31.647           29.952
 C           28.949           30.812           30.259
 C           28.992           30.004           31.431
 C           30.098           30.068           32.333
 C           31.192           30.848           31.966
 C           32.374           30.884           32.791
 H           32.370           30.432           33.778
 H           30.168           29.534           33.249
 H           28.110           29.477           31.665
 H           28.181           30.756           29.547
 H           30.012           32.189           29.054
 H           32.219           33.231           29.465
 H           34.170           33.219           31.003
 H           34.272           31.838           33.043
 O           31.880           34.019           33.599
 H           31.096           33.635           33.992
 H           32.238           33.323           33.048
 O           32.780           26.910           33.962
 H           33.108           27.228           33.121
 H           33.067           27.568           34.595
 O           32.491           36.372           34.407
 H           33.440           36.374           34.529
 H           32.282           35.469           34.171
 O           35.943           32.529           28.681
 H           36.222           32.678           29.585
 H           36.140           33.350           28.231
 O           36.027           35.336           32.769
 H           36.122           34.477           32.357
 H           35.291           35.741           32.310
 O           34.374           36.233           30.708
 H           33.832           35.676           30.149
 H           35.033           36.595           30.116
 O           37.274           30.549           32.765
 H           38.229           30.490           32.789
 H           37.008           29.867           32.149
 O           27.679           29.192           35.701
 H           27.826           30.032           35.267
 H           27.492           28.582           34.986
 O           34.049           29.066           35.440
 H           34.963           29.145           35.166
 H           34.093           28.951           36.389
 O           33.977           28.931           28.926
 H           34.902           28.721           28.801
 H           33.803           29.631           28.297
 O           27.815           26.397           30.670
 H           27.843           26.861           31.506
 H           27.745           27.090           30.013
 O           29.604           28.346           26.141
 H           29.844           29.257           26.311
 H           30.386           27.962           25.746
 O           36.924           32.906           31.478
 H           37.825           33.218           31.559
 H           36.884           32.141           32.052
 O           33.775           31.371           27.417
 H           34.355           31.534           28.160
 H           33.368           32.219           27.240
 O           32.488           33.643           27.026
 H           31.730           33.705           26.445
 H           32.309           34.275           27.722
 O           32.025           27.868           30.450
 H           32.810           28.019           29.923
 H           31.566           28.707           30.442
 O           32.506           25.199           30.774
 H           32.118           26.072           30.725
 H           33.446           25.359           30.855
 O           27.232           34.593           33.483
 H           27.021           34.031           34.228
 H           26.387           34.768           33.068
 O           32.228           34.387           37.240
 H           33.047           34.578           36.783
 H           31.729           33.850           36.623
 O           30.527           30.281           36.407
 H           30.816           29.396           36.185
 H           30.163           30.201           37.289
 O           32.571           35.898           28.581
 H           33.147           36.332           27.952
 H           31.967           36.584           28.866
 O           29.036           32.461           26.269
 H           29.022           32.813           25.378
 H           29.655           31.732           26.229
 O           26.963           33.601           29.903
 H           27.737           33.175           30.270
 H           26.729           33.063           29.147
 O           28.417           36.364           31.621
 H           28.254           35.811           32.384
 H           29.325           36.649           31.720
 O           29.874           32.904           35.546
 H           30.227           32.162           36.036
 H           29.029           32.596           35.220
 O           27.693           27.261           27.930
 H           28.522           27.536           27.539
 H           27.136           27.045           27.182
 O           34.579           27.993           32.191
 H           34.750           27.535           31.367
 H           34.579           28.920           31.954
 O           26.911           31.894           27.742
 H           27.604           32.230           27.173
 H           26.580           31.122           27.284
 O           27.933           31.476           33.956
 H           28.459           31.374           33.163
 H           27.108           31.853           33.650
 O           27.124           27.622           33.548
 H           26.232           27.281           33.488
 H           27.654           26.866           33.803
 O           26.127           29.284           29.756
 H           26.408           28.980           28.893
 H           25.539           30.016           29.572
 O           31.146           30.683           26.353
 H           31.930           30.889           26.861
 H           31.469           30.527           25.466
