114
Created with MDTraj 1.9.7, 2022-11-02
 C           33.460           31.671           32.393
 C           33.398           32.485           31.204
 C           32.249           32.563           30.472
 C           31.133           31.683           30.798
 C           30.020           31.708           29.909
 C           28.964           30.852           30.199
 C           29.006           30.058           31.457
 C           30.091           30.066           32.336
 C           31.195           30.948           31.994
 C           32.364           30.933           32.745
 H           32.423           30.279           33.619
 H           30.153           29.524           33.257
 H           28.218           29.399           31.714
 H           28.134           30.757           29.561
 H           29.959           32.375           29.101
 H           31.988           33.293           29.538
 H           34.314           33.067           31.023
 H           34.276           31.672           33.074
 O           31.888           34.057           33.579
 H           31.140           33.839           34.135
 H           32.062           33.255           33.086
 O           32.760           27.003           33.919
 H           33.277           27.239           33.149
 H           32.922           27.710           34.543
 O           32.508           36.436           34.381
 H           33.460           36.459           34.479
 H           32.329           35.586           33.979
 O           35.859           32.587           28.669
 H           36.172           32.752           29.558
 H           36.057           33.393           28.192
 O           36.056           35.353           32.724
 H           36.076           34.478           32.338
 H           35.407           35.829           32.205
 O           34.343           36.245           30.696
 H           33.693           35.847           30.117
 H           34.987           36.631           30.103
 O           27.635           29.241           35.669
 H           27.769           30.109           35.287
 H           27.381           28.691           34.928
 O           34.062           29.106           35.392
 H           34.960           29.260           35.101
 H           34.145           28.892           36.322
 O           33.928           28.977           28.858
 H           34.865           28.792           28.793
 H           33.763           29.622           28.170
 O           27.845           26.487           30.605
 H           27.887           26.993           31.416
 H           27.731           27.144           29.918
 O           29.613           28.392           26.181
 H           29.896           29.306           26.140
 H           30.287           27.911           25.701
 O           36.929           32.938           31.483
 H           37.806           33.323           31.483
 H           37.034           32.103           31.939
 O           33.747           31.451           27.398
 H           34.295           31.736           28.130
 H           33.242           32.229           27.161
 O           32.478           33.682           26.997
 H           31.563           33.551           26.750
 H           32.465           34.449           27.569
 O           32.006           27.890           30.458
 H           32.714           28.036           29.832
 H           31.577           28.742           30.538
 O           32.525           25.238           30.728
 H           32.137           26.113           30.751
 H           33.469           25.395           30.733
 O           27.270           34.626           33.522
 H           26.903           34.087           34.222
 H           26.580           34.661           32.860
 O           32.199           34.463           37.232
 H           33.018           34.691           36.794
 H           31.724           33.932           36.592
 O           30.472           30.371           36.426
 H           30.708           29.495           36.120
 H           30.197           30.242           37.333
 O           32.553           35.963           28.584
 H           33.031           36.410           27.886
 H           31.885           36.592           28.858
 O           29.015           32.483           26.274
 H           29.021           32.919           25.422
 H           29.699           31.816           26.205
 O           26.951           33.680           29.924
 H           27.795           33.314           30.188
 H           26.756           33.256           29.088
 O           28.451           36.409           31.616
 H           28.167           35.885           32.365
 H           29.366           36.620           31.804
 O           29.823           32.955           35.537
 H           30.085           32.270           36.151
 H           29.098           32.570           35.043
 O           27.686           27.292           27.923
 H           28.517           27.626           27.584
 H           27.196           27.034           27.142
 O           29.163           25.864           34.293
 H           29.325           25.306           35.053
 H           30.000           25.886           33.829
 O           34.619           27.987           32.201
 H           34.854           27.402           31.481
 H           34.430           28.824           31.777
 O           26.905           31.977           27.747
 H           27.725           32.239           27.329
 H           26.712           31.116           27.375
 O           27.920           31.521           33.982
 H           28.410           31.295           33.191
 H           27.086           31.861           33.658
 O           27.101           27.669           33.569
 H           26.297           27.150           33.544
 H           27.784           27.041           33.805
 O           26.111           29.339           29.705
 H           26.346           28.998           28.842
 H           25.523           30.071           29.522
 O           31.140           30.763           26.364
 H           31.913           30.813           26.926
 H           31.478           30.471           25.518
