111
Created with MDTraj 1.9.7, 2022-11-02
 C           33.391           31.775           32.503
 C           33.369           32.604           31.316
 C           32.288           32.531           30.482
 C           31.211           31.613           30.687
 C           30.004           31.595           29.878
 C           28.953           30.859           30.252
 C           29.020           30.063           31.428
 C           30.118           29.988           32.225
 C           31.214           30.863           31.870
 C           32.426           30.881           32.696
 H           32.376           30.193           33.584
 H           30.074           29.336           33.126
 H           28.125           29.482           31.708
 H           27.955           30.779           29.738
 H           30.044           32.230           28.982
 H           32.354           33.233           29.660
 H           34.166           33.376           31.094
 H           34.257           31.931           33.166
 O           31.686           33.976           33.654
 H           31.166           33.260           34.019
 H           32.328           33.544           33.091
 O           32.840           26.985           34.074
 H           33.032           27.164           33.153
 H           33.174           27.750           34.541
 O           32.317           36.470           34.471
 H           32.968           36.148           35.094
 H           32.047           35.692           33.983
 O           36.183           32.504           28.766
 H           36.146           32.317           29.704
 H           36.538           33.391           28.712
 O           35.847           35.340           32.863
 H           35.969           34.484           32.453
 H           35.250           35.804           32.277
 O           34.430           36.226           30.688
 H           33.631           36.171           30.164
 H           35.121           36.411           30.053
 O           27.729           29.105           35.771
 H           28.244           29.858           35.481
 H           27.549           28.614           34.969
 O           34.014           28.990           35.453
 H           34.874           29.404           35.391
 H           33.994           28.609           36.332
 O           34.051           28.895           29.119
 H           34.941           28.573           28.971
 H           33.970           29.652           28.540
 O           27.699           26.245           30.909
 H           27.497           26.959           31.514
 H           27.445           26.581           30.050
 O           29.445           28.271           26.030
 H           29.974           29.018           26.310
 H           30.065           27.690           25.589
 O           36.861           32.898           31.435
 H           37.816           32.966           31.409
 H           36.690           32.123           31.971
 O           33.826           31.238           27.583
 H           34.489           31.696           28.100
 H           33.085           31.843           27.554
 O           32.436           33.566           27.014
 H           32.628           33.949           26.158
 H           32.464           34.307           27.620
 O           31.948           27.861           30.438
 H           32.555           28.292           29.837
 H           31.303           28.535           30.651
 O           32.316           25.155           30.771
 H           32.162           26.084           30.602
 H           33.269           25.074           30.815
 O           27.159           34.579           33.493
 H           26.791           34.278           34.324
 H           26.416           34.578           32.889
 O           32.266           34.194           37.289
 H           33.014           34.425           36.738
 H           31.523           34.165           36.685
 O           30.648           30.200           36.417
 H           31.226           29.447           36.540
 H           30.338           30.410           37.298
 O           25.001           29.862           32.323
 H           25.458           29.747           31.490
 H           25.136           29.036           32.787
 O           32.615           35.764           28.572
 H           33.209           36.132           27.918
 H           32.054           36.497           28.826
 O           29.109           32.422           26.301
 H           29.099           32.481           25.346
 H           29.977           32.080           26.511
 O           26.891           33.434           29.828
 H           27.712           33.286           30.298
 H           26.976           32.914           29.028
 O           28.263           36.366           31.594
 H           28.036           35.708           32.252
 H           28.920           36.915           32.021
 O           30.131           32.689           35.569
 H           30.416           31.869           35.973
 H           29.322           32.462           35.110
 O           34.507           28.128           32.200
 H           34.424           27.518           31.467
 H           34.328           28.987           31.819
 O           26.846           31.780           27.701
 H           27.642           31.972           27.205
 H           26.545           30.940           27.356
 O           27.924           31.462           33.921
 H           28.213           31.469           33.008
 H           26.969           31.498           33.870
 O           27.043           27.522           33.440
 H           26.337           27.180           33.988
 H           27.786           26.946           33.619
 O           26.064           29.131           29.951
 H           26.615           28.820           29.233
 H           25.584           29.872           29.582
 O           31.129           30.616           26.274
 H           32.022           30.548           26.611
 H           31.223           30.529           25.326
