108
Created with MDTraj 1.9.7, 2022-11-02
 C           33.461           31.727           32.381
 C           33.352           32.545           31.272
 C           32.288           32.564           30.450
 C           31.162           31.675           30.731
 C           30.009           31.639           29.960
 C           28.978           30.815           30.297
 C           29.006           30.021           31.428
 C           30.061           30.102           32.272
 C           31.242           30.856           31.913
 C           32.362           30.886           32.796
 H           32.365           30.450           33.806
 H           30.068           29.485           33.195
 H           28.071           29.460           31.650
 H           28.092           30.696           29.615
 H           30.011           32.143           28.952
 H           32.338           33.128           29.654
 H           34.113           33.282           31.009
 H           34.368           31.860           33.014
 O           31.874           34.025           33.598
 H           31.095           33.568           33.914
 H           32.316           33.386           33.038
 O           32.796           26.911           33.970
 H           33.056           27.276           33.124
 H           33.153           27.522           34.615
 O           32.486           36.383           34.406
 H           33.418           36.322           34.617
 H           32.218           35.478           34.245
 O           35.999           32.533           28.683
 H           36.239           32.639           29.604
 H           36.191           33.382           28.286
 O           34.399           36.252           30.708
 H           33.827           35.710           30.164
 H           35.072           36.570           30.105
 O           37.287           30.590           32.778
 H           38.237           30.593           32.658
 H           36.978           29.881           32.214
 O           27.706           29.197           35.710
 H           27.891           30.023           35.263
 H           27.527           28.577           35.003
 O           34.049           29.073           35.443
 H           34.973           29.131           35.197
 H           34.062           28.949           36.392
 O           34.006           28.940           28.956
 H           34.897           28.682           28.721
 H           33.798           29.656           28.356
 O           27.807           26.379           30.694
 H           27.769           26.878           31.510
 H           27.700           27.036           30.006
 O           29.603           28.352           26.115
 H           29.839           29.223           26.434
 H           30.394           28.034           25.679
 O           36.927           32.920           31.465
 H           37.843           33.184           31.553
 H           36.833           32.175           32.058
 O           33.796           31.361           27.422
 H           34.441           31.490           28.117
 H           33.362           32.210           27.338
 O           32.492           33.642           27.031
 H           31.866           33.851           26.338
 H           32.327           34.298           27.708
 O           32.030           27.884           30.434
 H           32.827           28.085           29.944
 H           31.541           28.707           30.445
 O           32.497           25.206           30.791
 H           32.152           26.096           30.715
 H           33.446           25.321           30.841
 O           27.224           34.607           33.459
 H           27.101           34.074           34.245
 H           26.336           34.822           33.174
 O           32.247           34.375           37.234
 H           33.044           34.573           36.742
 H           31.703           33.883           36.619
 O           30.556           30.271           36.394
 H           30.894           29.388           36.242
 H           30.191           30.239           37.279
 O           32.578           35.886           28.574
 H           33.232           36.260           27.984
 H           32.036           36.632           28.834
 O           29.051           32.474           26.258
 H           29.076           32.756           25.344
 H           29.678           31.752           26.303
 O           26.979           33.588           29.876
 H           27.728           33.174           30.304
 H           26.743           32.985           29.171
 O           28.403           36.373           31.614
 H           28.285           35.790           32.364
 H           29.274           36.751           31.739
 O           29.913           32.900           35.548
 H           30.300           32.102           35.907
 H           29.048           32.628           35.241
 O           34.570           28.023           32.181
 H           34.718           27.641           31.316
 H           34.608           28.968           32.035
 O           26.916           31.879           27.730
 H           27.572           32.243           27.136
 H           26.557           31.128           27.258
 O           27.946           31.484           33.944
 H           28.466           31.446           33.141
 H           27.097           31.828           33.663
 O           27.136           27.618           33.531
 H           26.220           27.339           33.520
 H           27.618           26.847           33.829
 O           26.141           29.283           29.773
 H           26.440           28.978           28.917
 H           25.542           30.003           29.576
 O           31.155           30.672           26.337
 H           31.951           30.930           26.802
 H           31.416           30.638           25.417
