108
Created with MDTraj 1.9.7, 2022-11-02
 C           33.449           31.734           32.403
 C           33.345           32.588           31.291
 C           32.299           32.534           30.468
 C           31.170           31.667           30.748
 C           30.010           31.623           29.945
 C           28.976           30.819           30.313
 C           28.987           30.020           31.442
 C           30.042           30.104           32.236
 C           31.264           30.851           31.882
 C           32.373           30.906           32.791
 H           32.353           30.400           33.740
 H           29.991           29.479           33.092
 H           28.148           29.426           31.689
 H           28.133           30.696           29.727
 H           29.955           32.098           29.018
 H           32.362           33.300           29.519
 H           34.147           33.296           31.118
 H           34.340           31.791           32.972
 O           31.854           34.021           33.611
 H           31.090           33.503           33.865
 H           32.359           33.441           33.041
 O           32.807           26.911           33.986
 H           33.027           27.302           33.141
 H           33.220           27.486           34.630
 O           32.471           36.387           34.418
 H           33.370           36.271           34.727
 H           32.155           35.497           34.261
 O           36.045           32.528           28.699
 H           36.255           32.576           29.632
 H           36.227           33.407           28.367
 O           35.982           35.365           32.806
 H           36.270           34.554           32.387
 H           35.219           35.640           32.298
 O           34.420           36.253           30.712
 H           33.782           35.782           30.177
 H           35.090           36.539           30.090
 O           27.719           29.186           35.729
 H           27.951           29.999           35.282
 H           27.540           28.566           35.022
 O           34.044           29.067           35.451
 H           34.973           29.143           35.237
 H           34.029           28.873           36.388
 O           34.030           28.931           28.999
 H           34.865           28.605           28.662
 H           33.783           29.630           28.394
 O           27.795           26.354           30.731
 H           27.692           26.888           31.518
 H           27.624           26.957           30.008
 O           29.595           28.342           26.107
 H           29.848           29.170           26.514
 H           30.356           28.090           25.584
 O           36.923           32.917           31.463
 H           37.850           33.140           31.555
 H           36.797           32.173           32.051
 O           33.806           31.338           27.445
 H           34.534           31.491           28.047
 H           33.296           32.148           27.474
 O           32.486           33.628           27.038
 H           32.026           33.963           26.268
 H           32.407           34.327           27.687
 O           32.025           27.885           30.425
 H           32.802           28.174           29.946
 H           31.483           28.670           30.497
 O           32.478           25.200           30.811
 H           32.183           26.107           30.735
 H           33.433           25.261           30.846
 O           27.213           34.609           33.455
 H           27.139           34.117           34.273
 H           26.312           34.841           33.233
 O           32.256           34.345           37.242
 H           33.021           34.575           36.715
 H           31.642           33.959           36.617
 O           30.572           30.249           36.394
 H           30.976           29.385           36.314
 H           30.239           30.276           37.291
 O           32.575           35.858           28.579
 H           33.296           36.145           28.019
 H           32.112           36.664           28.806
 O           29.062           32.471           26.263
 H           29.133           32.682           25.332
 H           29.720           31.791           26.406
 O           26.981           33.557           29.860
 H           27.720           33.185           30.343
 H           26.787           32.909           29.183
 O           28.378           36.369           31.616
 H           28.289           35.756           32.346
 H           29.193           36.838           31.794
 O           29.950           32.873           35.561
 H           30.358           32.034           35.772
 H           29.084           32.641           35.226
 O           34.556           28.041           32.187
 H           34.684           27.686           31.307
 H           34.600           28.990           32.072
 O           26.909           31.846           27.724
 H           27.551           32.245           27.136
 H           26.567           31.098           27.234
 O           27.946           31.483           33.940
 H           28.450           31.492           33.126
 H           27.067           31.758           33.680
 O           27.136           27.604           33.521
 H           26.210           27.368           33.582
 H           27.602           26.834           33.846
 O           26.146           29.265           29.803
 H           26.488           28.962           28.962
 H           25.552           29.981           29.576
 O           31.157           30.651           26.329
 H           31.972           30.930           26.745
 H           31.328           30.728           25.390
